*SPEF "IEEE 1481.1999"
*DESIGN "fifo"
*DATE "15:10:41 Tuesday April 16, 2024"
*VENDOR "unknown"
*PROGRAM "qrouter"
*VERSION "unknown"
*DESIGN_FLOW "qflow"
*DIVIDER /
*DELIMITER :
*BUS_DELIMITER <>
*T_UNIT 1 PS
*C_UNIT 1 FF
*R_UNIT 1 OHM
*L_UNIT 1 HENRY

*NAME_MAP
*1 _500_
*2 NOR2X1_3
*3 NOR2X1_9
*4 AOI21X1_7
*5 AOI21X1_6
*6 NOR2X1_10
*7 NOR2X1_11
*8 AOI21X1_9
*9 NOR2X1_7
*10 AOI21X1_5
*11 NOR2X1_6
*12 AOI21X1_3
*13 NOR2X1_5
*14 AOI21X1_4
*15 NOR2X1_4
*16 AOI21X1_2
*17 AOI21X1_8
*18 NOR2X1_8
*19 _510_
*20 NOR2X1_12
*21 NOR2X1_17
*22 AOI21X1_14
*23 NOR2X1_18
*24 AOI21X1_15
*25 AOI21X1_13
*26 AOI21X1_17
*27 NOR2X1_20
*28 NOR2X1_14
*29 AOI21X1_11
*30 NOR2X1_16
*31 AOI21X1_10
*32 NOR2X1_13
*33 NOR2X1_19
*34 AOI21X1_16
*35 AOI21X1_12
*36 NOR2X1_15
*37 _525_
*38 NAND3X1_1
*39 NAND2X1_17
*40 OAI21X1_14
*41 OAI21X1_13
*42 NAND2X1_16
*43 OAI21X1_12
*44 NAND2X1_15
*45 OAI21X1_16
*46 OAI21X1_10
*47 NAND2X1_13
*48 NAND2X1_19
*49 NAND2X1_14
*50 OAI21X1_11
*51 NAND2X1_12
*52 OAI21X1_9
*53 NAND2X1_18
*54 OAI21X1_15
*55 _534_
*56 NAND3X1_2
*57 NAND2X1_23
*58 NAND2X1_27
*59 OAI21X1_24
*60 NAND2X1_21
*61 OAI21X1_18
*62 NAND2X1_26
*63 OAI21X1_23
*64 OAI21X1_17
*65 NAND2X1_20
*66 OAI21X1_21
*67 NAND2X1_24
*68 NAND2X1_22
*69 OAI21X1_19
*70 NAND2X1_25
*71 OAI21X1_22
*72 OAI21X1_20
*73 _543_
*74 NAND3X1_3
*75 OAI21X1_28
*76 NAND2X1_31
*77 OAI21X1_31
*78 NAND2X1_34
*79 OAI21X1_32
*80 NAND2X1_35
*81 NAND2X1_32
*82 OAI21X1_29
*83 NAND2X1_30
*84 OAI21X1_27
*85 NAND2X1_33
*86 OAI21X1_30
*87 NAND2X1_29
*88 NAND2X1_28
*89 OAI21X1_25
*90 OAI21X1_26
*91 _552_
*92 NAND3X1_4
*93 NAND2X1_42
*94 OAI21X1_39
*95 NAND2X1_37
*96 OAI21X1_34
*97 NAND2X1_43
*98 OAI21X1_40
*99 NAND2X1_41
*100 OAI21X1_37
*101 NAND2X1_40
*102 OAI21X1_35
*103 NAND2X1_38
*104 OAI21X1_36
*105 NAND2X1_39
*106 NAND2X1_36
*107 OAI21X1_33
*108 OAI21X1_38
*109 _145_
*110 NAND3X1_7
*111 OAI21X1_41
*112 NAND2X1_44
*113 OAI21X1_44
*114 NAND2X1_47
*115 NAND2X1_48
*116 OAI21X1_42
*117 NAND2X1_45
*118 NAND2X1_49
*119 OAI21X1_46
*120 OAI21X1_48
*121 NAND2X1_52
*122 OAI21X1_43
*123 OAI21X1_47
*124 NAND2X1_50
*125 NAND2X1_46
*126 OAI21X1_45
*127 _430_
*128 NAND3X1_14
*129 NAND2X1_82
*130 OAI21X1_154
*131 OAI21X1_155
*132 NAND2X1_84
*133 NAND2X1_86
*134 OAI21X1_156
*135 NAND2X1_87
*136 OAI21X1_157
*137 OAI21X1_152
*138 NAND2X1_78
*139 NAND2X1_80
*140 OAI21X1_153
*141 NAND2X1_76
*142 OAI21X1_151
*143 OAI21X1_150
*144 NAND2X1_74
*145 _457_
*146 NOR2X1_66
*147 AOI21X1_96
*148 NOR2X1_71
*149 AOI21X1_97
*150 NOR2X1_72
*151 AOI21X1_95
*152 AOI21X1_99
*153 AOI21X1_94
*154 NOR2X1_69
*155 AOI21X1_92
*156 NOR2X1_67
*157 AOI21X1_93
*158 NOR2X1_68
*159 NOR2X1_74
*160 AOI21X1_98
*161 NOR2X1_73
*162 NOR2X1_70
*163 _473_
*164 NAND3X1_15
*165 NAND2X1_94
*166 OAI21X1_162
*167 OAI21X1_163
*168 NAND2X1_95
*169 NAND2X1_90
*170 OAI21X1_158
*171 OAI21X1_159
*172 NAND2X1_91
*173 OAI21X1_160
*174 NAND2X1_92
*175 NAND2X1_97
*176 OAI21X1_165
*177 NAND2X1_93
*178 OAI21X1_161
*179 NAND2X1_96
*180 OAI21X1_164
*181 _149_
*182 OAI21X1_49
*183 NOR2X1_35
*184 NAND2X1_65
*185 OAI21X1_58
*186 NAND2X1_54
*187 NOR2X1_78
*188 NOR2X1_66
*189 NOR2X1_3
*190 NOR2X1_75
*191 XNOR2X1_3
*192 NOR2X1_21
*193 NOR2X1_58
*194 NOR2X1_77
*195 NOR2X1_12
*196 XNOR2X1_6
*197 AOI21X1_24
*198 _447_
*199 NOR2X1_58
*200 NOR2X1_60
*201 AOI21X1_86
*202 NOR2X1_63
*203 AOI21X1_89
*204 AOI21X1_85
*205 NOR2X1_59
*206 MUX2X1_14
*207 NOR2X1_65
*208 AOI21X1_91
*209 AOI21X1_87
*210 NOR2X1_61
*211 AOI21X1_90
*212 NOR2X1_64
*213 AOI21X1_88
*214 NOR2X1_62
*215 clk_bF_buf11
*216 CLKBUF1_1
*217 DFFPOSX1_12
*218 DFFPOSX1_15
*219 DFFPOSX1_76
*220 DFFPOSX1_105
*221 DFFPOSX1_13
*222 DFFPOSX1_28
*223 DFFPOSX1_55
*224 DFFPOSX1_68
*225 DFFPOSX1_53
*226 DFFPOSX1_31
*227 DFFPOSX1_106
*228 DFFPOSX1_72
*229 DFFPOSX1_71
*230 clk_bF_buf10
*231 CLKBUF1_2
*232 DFFSR_20
*233 DFFSR_21
*234 DFFSR_3
*235 DFFPOSX1_81
*236 DFFPOSX1_54
*237 DFFPOSX1_70
*238 DFFSR_18
*239 DFFSR_17
*240 DFFSR_5
*241 DFFSR_6
*242 DFFSR_19
*243 DFFSR_1
*244 DFFPOSX1_14
*245 clk_bF_buf9
*246 CLKBUF1_3
*247 DFFSR_7
*248 DFFPOSX1_34
*249 DFFSR_8
*250 DFFPOSX1_5
*251 DFFPOSX1_78
*252 DFFPOSX1_126
*253 DFFPOSX1_121
*254 DFFPOSX1_30
*255 DFFPOSX1_29
*256 DFFPOSX1_69
*257 DFFSR_2
*258 DFFPOSX1_77
*259 DFFPOSX1_39
*260 clk_bF_buf8
*261 CLKBUF1_4
*262 DFFPOSX1_94
*263 DFFPOSX1_112
*264 DFFPOSX1_1
*265 DFFPOSX1_44
*266 DFFPOSX1_124
*267 DFFPOSX1_120
*268 DFFPOSX1_82
*269 DFFPOSX1_36
*270 DFFPOSX1_85
*271 DFFPOSX1_84
*272 DFFPOSX1_125
*273 DFFPOSX1_40
*274 DFFPOSX1_116
*275 clk_bF_buf7
*276 CLKBUF1_5
*277 DFFPOSX1_42
*278 DFFPOSX1_3
*279 DFFPOSX1_37
*280 DFFPOSX1_122
*281 DFFPOSX1_128
*282 DFFPOSX1_59
*283 DFFPOSX1_101
*284 DFFPOSX1_117
*285 DFFPOSX1_123
*286 DFFPOSX1_21
*287 DFFPOSX1_7
*288 DFFPOSX1_100
*289 DFFPOSX1_87
*290 clk
*291 CLKBUF1_6
*292 CLKBUF1_3
*293 CLKBUF1_2
*294 CLKBUF1_10
*295 CLKBUF1_1
*296 CLKBUF1_12
*297 CLKBUF1_11
*298 CLKBUF1_8
*299 CLKBUF1_4
*300 CLKBUF1_7
*301 CLKBUF1_9
*302 CLKBUF1_5
*303 clk_bF_buf6
*304 CLKBUF1_6
*305 DFFPOSX1_45
*306 DFFPOSX1_95
*307 DFFPOSX1_90
*308 DFFPOSX1_46
*309 DFFSR_4
*310 DFFSR_11
*311 DFFSR_12
*312 DFFPOSX1_38
*313 DFFPOSX1_6
*314 DFFPOSX1_18
*315 DFFSR_9
*316 DFFSR_13
*317 clk_bF_buf5
*318 CLKBUF1_7
*319 DFFPOSX1_109
*320 DFFPOSX1_17
*321 DFFPOSX1_86
*322 DFFPOSX1_118
*323 DFFPOSX1_111
*324 DFFPOSX1_57
*325 DFFPOSX1_119
*326 DFFPOSX1_2
*327 DFFPOSX1_60
*328 DFFPOSX1_20
*329 DFFPOSX1_103
*330 DFFPOSX1_92
*331 clk_bF_buf4
*332 CLKBUF1_8
*333 DFFSR_15
*334 DFFPOSX1_22
*335 DFFPOSX1_96
*336 DFFPOSX1_102
*337 DFFPOSX1_97
*338 DFFPOSX1_98
*339 DFFPOSX1_114
*340 DFFPOSX1_33
*341 DFFSR_10
*342 DFFSR_16
*343 DFFPOSX1_110
*344 DFFSR_14
*345 clk_bF_buf3
*346 CLKBUF1_9
*347 DFFPOSX1_24
*348 DFFPOSX1_104
*349 DFFPOSX1_107
*350 DFFPOSX1_48
*351 DFFPOSX1_93
*352 DFFPOSX1_19
*353 DFFPOSX1_83
*354 DFFPOSX1_58
*355 DFFPOSX1_91
*356 DFFPOSX1_88
*357 DFFPOSX1_35
*358 DFFPOSX1_115
*359 clk_bF_buf2
*360 CLKBUF1_10
*361 DFFPOSX1_65
*362 DFFPOSX1_16
*363 DFFPOSX1_67
*364 DFFPOSX1_56
*365 DFFPOSX1_52
*366 DFFPOSX1_9
*367 DFFPOSX1_73
*368 DFFPOSX1_51
*369 DFFPOSX1_75
*370 DFFPOSX1_11
*371 DFFPOSX1_49
*372 DFFPOSX1_25
*373 clk_bF_buf1
*374 CLKBUF1_11
*375 DFFPOSX1_23
*376 DFFPOSX1_89
*377 DFFPOSX1_32
*378 DFFPOSX1_127
*379 DFFPOSX1_79
*380 DFFPOSX1_8
*381 DFFPOSX1_108
*382 DFFPOSX1_41
*383 DFFPOSX1_80
*384 DFFPOSX1_4
*385 DFFPOSX1_113
*386 DFFPOSX1_64
*387 clk_bF_buf0
*388 CLKBUF1_12
*389 DFFPOSX1_74
*390 DFFPOSX1_26
*391 DFFPOSX1_10
*392 DFFPOSX1_27
*393 DFFPOSX1_63
*394 DFFPOSX1_47
*395 DFFPOSX1_62
*396 DFFPOSX1_61
*397 DFFPOSX1_99
*398 DFFPOSX1_66
*399 DFFPOSX1_50
*400 DFFPOSX1_43
*401 _520_
*402 NOR2X1_21
*403 MUX2X1_10
*404 AOI21X1_21
*405 NOR2X1_25
*406 MUX2X1_11
*407 MUX2X1_9
*408 AOI21X1_20
*409 NOR2X1_24
*410 AOI21X1_19
*411 AOI21X1_18
*412 NOR2X1_22
*413 MUX2X1_8
*414 NOR2X1_23
*415 _431_
*416 NAND2X1_73
*417 OAI21X1_41
*418 OAI21X1_25
*419 AOI21X1_10
*420 OAI21X1_9
*421 OAI21X1_33
*422 OAI21X1_17
*423 OAI21X1_150
*424 AOI21X1_85
*425 OAI21X1_158
*426 MUX2X1_22
*427 OAI21X1_1
*428 _433_
*429 NAND2X1_75
*430 OAI21X1_10
*431 AOI21X1_11
*432 OAI21X1_151
*433 OAI21X1_159
*434 OAI21X1_18
*435 MUX2X1_23
*436 AOI21X1_86
*437 OAI21X1_34
*438 OAI21X1_2
*439 OAI21X1_42
*440 OAI21X1_26
*441 _435_
*442 NAND2X1_77
*443 MUX2X1_24
*444 OAI21X1_11
*445 AOI21X1_12
*446 OAI21X1_152
*447 OAI21X1_43
*448 OAI21X1_160
*449 OAI21X1_19
*450 MUX2X1_14
*451 OAI21X1_35
*452 OAI21X1_27
*453 OAI21X1_3
*454 _437_
*455 NAND2X1_79
*456 OAI21X1_161
*457 OAI21X1_28
*458 OAI21X1_44
*459 OAI21X1_20
*460 OAI21X1_4
*461 OAI21X1_12
*462 AOI21X1_13
*463 AOI21X1_87
*464 OAI21X1_36
*465 OAI21X1_153
*466 MUX2X1_25
*467 _439_
*468 NAND2X1_81
*469 OAI21X1_154
*470 AOI21X1_88
*471 MUX2X1_26
*472 OAI21X1_21
*473 OAI21X1_5
*474 OAI21X1_37
*475 OAI21X1_29
*476 OAI21X1_13
*477 OAI21X1_162
*478 AOI21X1_14
*479 OAI21X1_45
*480 _441_
*481 NAND2X1_83
*482 OAI21X1_14
*483 OAI21X1_163
*484 AOI21X1_15
*485 OAI21X1_6
*486 OAI21X1_30
*487 AOI21X1_89
*488 MUX2X1_27
*489 OAI21X1_38
*490 OAI21X1_22
*491 OAI21X1_46
*492 OAI21X1_155
*493 _443_
*494 NAND2X1_85
*495 AOI21X1_16
*496 OAI21X1_156
*497 AOI21X1_90
*498 OAI21X1_164
*499 MUX2X1_28
*500 OAI21X1_23
*501 OAI21X1_31
*502 OAI21X1_47
*503 OAI21X1_15
*504 OAI21X1_7
*505 OAI21X1_39
*506 _146_
*507 NAND2X1_51
*508 OAI21X1_165
*509 OAI21X1_157
*510 OAI21X1_16
*511 OAI21X1_48
*512 AOI21X1_17
*513 MUX2X1_29
*514 AOI21X1_91
*515 OAI21X1_32
*516 OAI21X1_40
*517 OAI21X1_24
*518 OAI21X1_8
*519 rd_ptr[2]
*520 DFFSR_3
*521 OAI21X1_51
*522 AOI21X1_38
*523 AOI21X1_77
*524 NAND2X1_56
*525 OAI21X1_127
*526 AOI21X1_63
*527 OAI21X1_149
*528 OAI21X1_82
*529 INVX8_4
*530 AOI21X1_56
*531 NOR2X1_44
*532 _160__bF_buf7
*533 BUFX4_26
*534 OAI21X1_98
*535 AOI21X1_74
*536 AOI21X1_80
*537 AOI21X1_60
*538 AOI21X1_59
*539 AOI21X1_72
*540 AOI21X1_73
*541 OAI21X1_72
*542 AOI21X1_40
*543 _160__bF_buf6
*544 BUFX4_27
*545 OAI21X1_142
*546 AOI21X1_28
*547 OAI21X1_62
*548 AOI21X1_78
*549 OAI21X1_139
*550 AOI21X1_50
*551 OAI21X1_95
*552 OAI21X1_128
*553 AOI21X1_71
*554 _488_
*555 NOR2X1_78
*556 MUX2X1_5
*557 MUX2X1_4
*558 MUX2X1_6
*559 MUX2X1_3
*560 MUX2X1_7
*561 MUX2X1_1
*562 AOI21X1_1
*563 NOR2X1_1
*564 MUX2X1_2
*565 _483_
*566 NOR2X1_75
*567 MUX2X1_19
*568 MUX2X1_18
*569 MUX2X1_20
*570 MUX2X1_17
*571 MUX2X1_21
*572 MUX2X1_16
*573 MUX2X1_15
*574 NOR2X1_76
*575 AOI21X1_100
*576 _156__bF_buf5
*577 BUFX4_1
*578 AOI21X1_76
*579 OAI21X1_135
*580 AOI21X1_54
*581 OAI21X1_101
*582 OAI21X1_69
*583 AOI21X1_34
*584 AOI21X1_36
*585 OAI21X1_70
*586 _156__bF_buf4
*587 BUFX4_2
*588 OAI21X1_103
*589 AOI21X1_75
*590 AOI21X1_61
*591 OAI21X1_112
*592 OAI21X1_71
*593 AOI21X1_37
*594 OAI21X1_134
*595 NOR2X1_31
*596 _156__bF_buf3
*597 BUFX4_3
*598 OAI21X1_111
*599 OAI21X1_100
*600 OAI21X1_133
*601 AOI21X1_33
*602 OAI21X1_144
*603 OAI21X1_89
*604 OAI21X1_80
*605 OAI21X1_68
*606 _156__bF_buf2
*607 BUFX4_4
*608 OAI21X1_79
*609 AOI21X1_45
*610 OAI21X1_78
*611 OAI21X1_122
*612 AOI21X1_44
*613 AOI21X1_62
*614 OAI21X1_125
*615 OAI21X1_113
*616 _156__bF_buf1
*617 BUFX4_5
*618 AOI21X1_82
*619 OAI21X1_145
*620 OAI21X1_124
*621 AOI21X1_69
*622 OAI21X1_123
*623 AOI21X1_68
*624 OAI21X1_146
*625 AOI21X1_83
*626 _160_
*627 INVX8_4
*628 BUFX4_32
*629 BUFX4_30
*630 BUFX4_29
*631 BUFX4_33
*632 BUFX4_27
*633 BUFX4_31
*634 BUFX4_28
*635 BUFX4_26
*636 _160__bF_buf5
*637 BUFX4_28
*638 OAI21X1_106
*639 AOI21X1_57
*640 NAND3X1_8
*641 AOI21X1_66
*642 AOI21X1_64
*643 OAI21X1_120
*644 OAI21X1_117
*645 OAI21X1_109
*646 _160__bF_buf4
*647 BUFX4_29
*648 OAI21X1_65
*649 AOI21X1_41
*650 AOI21X1_53
*651 AOI21X1_52
*652 OAI21X1_132
*653 OAI21X1_96
*654 AOI21X1_51
*655 AOI21X1_30
*656 _160__bF_buf3
*657 BUFX4_30
*658 OAI21X1_138
*659 OAI21X1_94
*660 OAI21X1_116
*661 AOI21X1_31
*662 OAI21X1_66
*663 OAI21X1_63
*664 AOI21X1_84
*665 AOI21X1_29
*666 _160__bF_buf2
*667 BUFX4_31
*668 AOI21X1_35
*669 OAI21X1_131
*670 OAI21X1_129
*671 OAI21X1_140
*672 AOI21X1_58
*673 OAI21X1_105
*674 AOI21X1_79
*675 OAI21X1_73
*676 _160__bF_buf1
*677 BUFX4_32
*678 AOI21X1_46
*679 AOI21X1_43
*680 OAI21X1_121
*681 OAI21X1_118
*682 AOI21X1_65
*683 AOI21X1_67
*684 OAI21X1_76
*685 AOI21X1_70
*686 _160__bF_buf0
*687 BUFX4_33
*688 OAI21X1_107
*689 OAI21X1_75
*690 AOI21X1_81
*691 OAI21X1_143
*692 AOI21X1_42
*693 MUX2X1_13
*694 OAI21X1_99
*695 OAI21X1_110
*696 rd_ptr[0_bF_buf5]
*697 BUFX4_38
*698 XNOR2X1_1
*699 NOR2X1_50
*700 AOI21X1_61
*701 OAI21X1_137
*702 OAI21X1_99
*703 AOI21X1_47
*704 NOR2X1_42
*705 AOI21X1_36
*706 rd_ptr[0_bF_buf4]
*707 BUFX4_39
*708 OAI21X1_126
*709 AOI21X1_22
*710 AOI21X1_54
*711 OAI21X1_140
*712 OAI21X1_73
*713 NOR2X1_48
*714 OAI21X1_90
*715 OAI21X1_83
*716 rd_ptr[0_bF_buf3]
*717 BUFX4_40
*718 NOR2X1_46
*719 OAI21X1_76
*720 OAI21X1_129
*721 OAI21X1_84
*722 INVX8_2
*723 OAI21X1_143
*724 AOI21X1_49
*725 OAI21X1_115
*726 rd_ptr[0_bF_buf2]
*727 BUFX4_41
*728 AOI21X1_44
*729 OAI21X1_118
*730 AOI21X1_82
*731 OAI21X1_63
*732 AOI21X1_48
*733 OAI21X1_91
*734 OAI21X1_104
*735 OAI21X1_132
*736 rd_ptr[0_bF_buf1]
*737 BUFX4_42
*738 AOI21X1_75
*739 NOR2X1_54
*740 NOR2X1_38
*741 OAI21X1_107
*742 OAI21X1_86
*743 OAI21X1_92
*744 OAI21X1_66
*745 OAI21X1_121
*746 rd_ptr[0_bF_buf0]
*747 BUFX4_43
*748 OAI21X1_96
*749 NOR2X1_52
*750 AOI21X1_68
*751 OAI21X1_148
*752 AOI21X1_33
*753 OAI21X1_81
*754 OAI21X1_87
*755 OAI21X1_110
*756 _486_
*757 NOR2X1_77
*758 MUX2X1_24
*759 MUX2X1_25
*760 MUX2X1_28
*761 MUX2X1_26
*762 MUX2X1_29
*763 MUX2X1_22
*764 MUX2X1_23
*765 MUX2X1_27
*766 _156__bF_buf0
*767 BUFX4_6
*768 OAI21X1_136
*769 OAI21X1_114
*770 OAI21X1_102
*771 OAI21X1_67
*772 AOI21X1_55
*773 OAI21X1_77
*774 OAI21X1_147
*775 _155__bF_buf5
*776 BUFX4_20
*777 AOI21X1_55
*778 OAI21X1_114
*779 OAI21X1_147
*780 OAI21X1_136
*781 OAI21X1_65
*782 AOI21X1_83
*783 AOI21X1_69
*784 _155__bF_buf4
*785 BUFX4_21
*786 AOI21X1_45
*787 NOR2X1_49
*788 OAI21X1_125
*789 AOI21X1_62
*790 NOR2X1_47
*791 NOR2X1_51
*792 OAI21X1_103
*793 _155__bF_buf3
*794 BUFX4_22
*795 OAI21X1_131
*796 AOI21X1_76
*797 OAI21X1_142
*798 OAI21X1_62
*799 OAI21X1_139
*800 OAI21X1_95
*801 OAI21X1_128
*802 _155__bF_buf2
*803 BUFX4_23
*804 AOI21X1_37
*805 NOR2X1_31
*806 OAI21X1_109
*807 AOI21X1_34
*808 OAI21X1_106
*809 OAI21X1_117
*810 OAI21X1_120
*811 _570_[1]
*812 DFFSR_18
*813 NAND2X1_60
*814 XOR2X1_1
*815 INVX1_7
*816 XNOR2X1_7
*817 AND2X2_3
*818 NOR2X1_26
*819 BUFX2_11
*820 _156_
*821 INVX8_3
*822 BUFX4_2
*823 BUFX4_1
*824 BUFX4_3
*825 BUFX4_6
*826 BUFX4_4
*827 BUFX4_5
*828 _141__bF_buf4
*829 BUFX4_7
*830 NOR2X1_30
*831 NAND2X1_51
*832 OAI21X1_59
*833 NAND3X1_1
*834 NAND3X1_14
*835 NAND3X1_7
*836 _141__bF_buf3
*837 BUFX4_8
*838 NAND2X1_85
*839 NAND3X1_12
*840 NAND2X1_83
*841 NAND2X1_66
*842 NAND2X1_63
*843 NAND3X1_13
*844 _132__bF_buf3
*845 BUFX4_12
*846 DFFSR_14
*847 DFFSR_13
*848 DFFSR_9
*849 DFFSR_16
*850 DFFSR_10
*851 DFFSR_15
*852 rd_ptr[1_bF_buf3]
*853 BUFX4_16
*854 AOI21X1_22
*855 OAI21X1_141
*856 OAI21X1_97
*857 OAI21X1_119
*858 OAI21X1_81
*859 OAI21X1_87
*860 rd_ptr[1_bF_buf2]
*861 BUFX4_17
*862 OAI21X1_126
*863 OAI21X1_148
*864 OAI21X1_104
*865 INVX8_3
*866 OAI21X1_90
*867 AOI21X1_47
*868 _155_
*869 INVX8_2
*870 BUFX4_25
*871 BUFX4_21
*872 BUFX4_20
*873 BUFX4_24
*874 BUFX4_22
*875 BUFX4_23
*876 _155__bF_buf1
*877 BUFX4_24
*878 NOR2X1_43
*879 NOR2X1_55
*880 OAI21X1_80
*881 OAI21X1_89
*882 OAI21X1_72
*883 OAI21X1_98
*884 _155__bF_buf0
*885 BUFX4_25
*886 OAI21X1_75
*887 NOR2X1_53
*888 NOR2X1_45
*889 NOR2X1_40
*890 NOR2X1_39
*891 NOR2X1_41
*892 rd_ptr[0]
*893 DFFSR_1
*894 BUFX4_38
*895 BUFX4_42
*896 BUFX4_41
*897 BUFX4_40
*898 BUFX4_43
*899 BUFX4_39
*900 _570_[0]
*901 DFFSR_17
*902 XNOR2X1_5
*903 XOR2X1_1
*904 XNOR2X1_7
*905 AND2X2_3
*906 NOR2X1_26
*907 BUFX2_10
*908 _570_[2]
*909 DFFSR_19
*910 NAND2X1_61
*911 AOI21X1_25
*912 INVX1_9
*913 NAND2X1_62
*914 NOR2X1_27
*915 BUFX2_12
*916 _570_[3]
*917 DFFSR_20
*918 AOI21X1_27
*919 AOI22X1_2
*920 NOR2X1_27
*921 NAND3X1_13
*922 BUFX2_13
*923 NAND2X1_66
*924 _133_
*925 NOR2X1_26
*926 NAND2X1_53
*927 NAND3X1_6
*928 NAND3X1_5
*929 NAND2X1_64
*930 AOI21X1_25
*931 NAND2X1_61
*932 _141_
*933 AND2X2_1
*934 BUFX4_8
*935 BUFX4_10
*936 BUFX4_9
*937 BUFX4_11
*938 BUFX4_7
*939 _141__bF_buf2
*940 BUFX4_9
*941 NAND3X1_3
*942 NAND3X1_15
*943 NAND3X1_9
*944 OAI21X1_52
*945 NAND2X1_57
*946 _141__bF_buf1
*947 BUFX4_10
*948 NAND2X1_81
*949 NAND2X1_73
*950 NAND2X1_79
*951 NAND2X1_77
*952 NAND2X1_75
*953 _141__bF_buf0
*954 BUFX4_11
*955 OAI21X1_54
*956 OAI21X1_53
*957 NAND3X1_4
*958 NAND2X1_58
*959 NAND3X1_2
*960 _132__bF_buf2
*961 BUFX4_13
*962 DFFSR_6
*963 DFFSR_17
*964 DFFSR_20
*965 DFFSR_18
*966 DFFSR_5
*967 _132__bF_buf1
*968 BUFX4_14
*969 DFFSR_4
*970 DFFSR_12
*971 DFFSR_11
*972 DFFSR_8
*973 DFFSR_7
*974 _132__bF_buf0
*975 BUFX4_15
*976 DFFSR_1
*977 DFFSR_19
*978 DFFSR_21
*979 DFFSR_2
*980 DFFSR_3
*981 rd_ptr[1_bF_buf1]
*982 BUFX4_18
*983 OAI21X1_108
*984 OAI21X1_64
*985 OAI21X1_130
*986 OAI21X1_84
*987 AOI21X1_49
*988 rd_ptr[1_bF_buf0]
*989 BUFX4_19
*990 OAI21X1_137
*991 OAI21X1_74
*992 OAI21X1_92
*993 OAI21X1_115
*994 AOI21X1_48
*995 rd_ptr[3_bF_buf3]
*996 BUFX4_34
*997 OAI22X1_8
*998 AOI21X1_39
*999 OAI22X1_4
*1000 OAI22X1_12
*1001 XNOR2X1_2
*1002 rd_ptr[3_bF_buf2]
*1003 BUFX4_35
*1004 OAI21X1_149
*1005 OAI21X1_82
*1006 OAI21X1_105
*1007 OAI21X1_127
*1008 MUX2X1_12
*1009 rd_ptr[3_bF_buf1]
*1010 BUFX4_36
*1011 NAND2X1_57
*1012 OAI22X1_6
*1013 OAI22X1_2
*1014 OAI22X1_14
*1015 OAI22X1_10
*1016 _171__bF_buf3
*1017 BUFX4_44
*1018 OAI21X1_4
*1019 NAND2X1_4
*1020 OAI21X1_6
*1021 OAI21X1_1
*1022 NAND2X1_1
*1023 _455_
*1024 INVX4_1
*1025 MUX2X1_8
*1026 AOI21X1_2
*1027 MUX2X1_15
*1028 AOI21X1_92
*1029 MUX2X1_1
*1030 _459_
*1031 INVX4_2
*1032 AOI21X1_18
*1033 AOI21X1_3
*1034 MUX2X1_2
*1035 MUX2X1_16
*1036 AOI21X1_93
*1037 _461_
*1038 INVX4_3
*1039 AOI21X1_94
*1040 AOI21X1_100
*1041 AOI21X1_4
*1042 AOI21X1_1
*1043 AOI21X1_19
*1044 _463_
*1045 INVX4_4
*1046 AOI21X1_95
*1047 AOI21X1_5
*1048 MUX2X1_9
*1049 MUX2X1_3
*1050 MUX2X1_17
*1051 _465_
*1052 INVX4_5
*1053 MUX2X1_18
*1054 AOI21X1_96
*1055 MUX2X1_10
*1056 AOI21X1_6
*1057 MUX2X1_4
*1058 _467_
*1059 INVX4_6
*1060 MUX2X1_5
*1061 AOI21X1_97
*1062 MUX2X1_19
*1063 AOI21X1_20
*1064 AOI21X1_7
*1065 _469_
*1066 INVX4_7
*1067 MUX2X1_6
*1068 MUX2X1_11
*1069 AOI21X1_8
*1070 MUX2X1_20
*1071 AOI21X1_98
*1072 _471_
*1073 INVX4_8
*1074 AOI21X1_99
*1075 MUX2X1_7
*1076 MUX2X1_21
*1077 AOI21X1_9
*1078 AOI21X1_21
*1079 _167_
*1080 NOR2X1_33
*1081 OAI21X1_53
*1082 NAND2X1_10
*1083 NAND2X1_88
*1084 NAND2X1_99
*1085 NAND3X1_3
*1086 _166_
*1087 NOR2X1_32
*1088 NAND2X1_89
*1089 NAND2X1_100
*1090 NAND2X1_11
*1091 OAI21X1_53
*1092 NAND3X1_4
*1093 _144_
*1094 NOR2X1_29
*1095 NAND3X1_7
*1096 NAND3X1_15
*1097 NAND3X1_9
*1098 NAND2X1_58
*1099 NAND3X1_1
*1100 _570_[4]
*1101 DFFSR_21
*1102 AOI21X1_27
*1103 NAND3X1_5
*1104 INVX2_1
*1105 BUFX2_14
*1106 OAI21X1_50
*1107 rd_en
*1108 NAND3X1_11
*1109 AND2X2_2
*1110 AOI21X1_26
*1111 INVX1_8
*1112 OAI21X1_50
*1113 _152_
*1114 OAI21X1_50
*1115 NOR2X1_35
*1116 NAND3X1_12
*1117 OAI21X1_58
*1118 XNOR2X1_5
*1119 NOR2X1_30
*1120 _132_
*1121 INVX8_1
*1122 BUFX4_14
*1123 BUFX4_12
*1124 BUFX4_13
*1125 BUFX4_15
*1126 rd_ptr[1]
*1127 DFFSR_2
*1128 BUFX4_17
*1129 BUFX4_16
*1130 BUFX4_18
*1131 BUFX4_19
*1132 rd_ptr[3]
*1133 DFFSR_4
*1134 BUFX4_37
*1135 BUFX4_35
*1136 BUFX4_36
*1137 BUFX4_34
*1138 rd_ptr[3_bF_buf0]
*1139 BUFX4_37
*1140 AOI21X1_32
*1141 OAI21X1_116
*1142 OAI21X1_138
*1143 OAI21X1_94
*1144 _171_
*1145 NAND3X1_9
*1146 BUFX4_45
*1147 BUFX4_44
*1148 BUFX4_46
*1149 BUFX4_47
*1150 _171__bF_buf2
*1151 BUFX4_45
*1152 NAND2X1_6
*1153 NAND2X1_59
*1154 NAND2X1_2
*1155 OAI21X1_2
*1156 _171__bF_buf1
*1157 BUFX4_46
*1158 NAND2X1_3
*1159 OAI21X1_3
*1160 NAND2X1_5
*1161 OAI21X1_5
*1162 _171__bF_buf0
*1163 BUFX4_47
*1164 OAI21X1_8
*1165 NAND2X1_8
*1166 OAI21X1_7
*1167 NAND2X1_7
*1168 wr_ptr[2]
*1169 DFFSR_7
*1170 NOR2X1_2
*1171 INVX2_2
*1172 XNOR2X1_4
*1173 NOR2X1_56
*1174 _498_
*1175 NOR2X1_2
*1176 NAND2X1_10
*1177 NAND2X1_11
*1178 NAND3X1_1
*1179 NAND2X1_9
*1180 _429_
*1181 NOR2X1_57
*1182 NAND3X1_2
*1183 NAND3X1_14
*1184 NAND2X1_98
*1185 NAND2X1_9
*1186 _140_
*1187 NOR2X1_28
*1188 NAND3X1_4
*1189 NAND3X1_3
*1190 NAND3X1_2
*1191 NAND3X1_7
*1192 wr_ptr[0]
*1193 DFFSR_5
*1194 XNOR2X1_3
*1195 NOR2X1_32
*1196 NOR2X1_57
*1197 INVX1_4
*1198 wr_ptr[3]
*1199 DFFSR_8
*1200 OAI21X1_55
*1201 NOR2X1_34
*1202 INVX1_3
*1203 NOR2X1_56
*1204 _136_
*1205 INVX2_1
*1206 NAND3X1_6
*1207 AOI22X1_3
*1208 NOR2X1_37
*1209 OAI21X1_49
*1210 _137_
*1211 NAND3X1_6
*1212 AOI21X1_26
*1213 AND2X2_2
*1214 NAND3X1_11
*1215 INVX1_2
*1216 _150_
*1217 AND2X2_2
*1218 OAI21X1_56
*1219 OAI21X1_59
*1220 NAND2X1_54
*1221 MUX2X1_12
*1222 _153_
*1223 NOR2X1_30
*1224 AOI21X1_25
*1225 NAND3X1_8
*1226 AOI21X1_23
*1227 AOI21X1_22
*1228 _157_
*1229 NOR2X1_31
*1230 AOI21X1_23
*1231 NAND3X1_8
*1232 INVX1_5
*1233 NAND2X1_56
*1234 _170_
*1235 NOR2X1_34
*1236 NAND3X1_9
*1237 NAND2X1_99
*1238 NAND2X1_100
*1239 NAND2X1_98
*1240 _428_
*1241 NOR2X1_56
*1242 NAND2X1_88
*1243 NAND3X1_15
*1244 NAND2X1_89
*1245 NAND3X1_14
*1246 wr_ptr[1]
*1247 DFFSR_6
*1248 INVX2_3
*1249 NOR2X1_33
*1250 NOR2X1_57
*1251 _134_
*1252 NOR2X1_27
*1253 NAND2X1_53
*1254 NAND3X1_6
*1255 NAND3X1_5
*1256 _135_
*1257 NAND3X1_5
*1258 AND2X2_1
*1259 INVX1_1
*1260 NAND3X1_10
*1261 _139_
*1262 INVX2_2
*1263 NOR2X1_34
*1264 NOR2X1_28
*1265 OAI21X1_55
*1266 wr_en
*1267 NAND3X1_10
*1268 OAI21X1_49
*1269 AND2X2_1
*1270 _142_
*1271 INVX2_3
*1272 NOR2X1_29
*1273 OAI21X1_54
*1274 NOR2X1_32
*1275 _148_
*1276 NAND2X1_53
*1277 NOR2X1_36
*1278 OAI21X1_49
*1279 OAI21X1_50
*1280 _151_
*1281 NAND2X1_54
*1282 XNOR2X1_1
*1283 OAI21X1_60
*1284 OAI21X1_51
*1285 _174_
*1286 NOR2X1_35
*1287 NOR2X1_37
*1288 NAND2X1_60
*1289 OAI21X1_57
*1290 _189_
*1291 NAND2X1_62
*1292 OAI21X1_59
*1293 OAI21X1_61
*1294 AOI21X1_26
*1295 _204_
*1296 INVX1_10
*1297 MUX2X1_1
*1298 OAI21X1_62
*1299 _234_
*1300 INVX1_18
*1301 MUX2X1_2
*1302 OAI21X1_72
*1303 memory[6][2]
*1304 DFFPOSX1_51
*1305 NOR2X1_1
*1306 OAI21X1_84
*1307 _288_
*1308 INVX1_27
*1309 OAI21X1_95
*1310 MUX2X1_3
*1311 _316_
*1312 INVX1_33
*1313 OAI21X1_106
*1314 MUX2X1_4
*1315 _344_
*1316 INVX1_39
*1317 MUX2X1_5
*1318 OAI21X1_117
*1319 _372_
*1320 INVX1_45
*1321 MUX2X1_6
*1322 OAI21X1_128
*1323 _400_
*1324 INVX1_51
*1325 MUX2X1_7
*1326 OAI21X1_139
*1327 memory[7][0]
*1328 DFFPOSX1_33
*1329 INVX1_11
*1330 NAND2X1_1
*1331 memory[7][1]
*1332 DFFPOSX1_34
*1333 NAND2X1_2
*1334 INVX1_19
*1335 memory[7][2]
*1336 DFFPOSX1_35
*1337 NAND2X1_3
*1338 NOR2X1_40
*1339 memory[7][3]
*1340 DFFPOSX1_36
*1341 NAND2X1_4
*1342 INVX1_28
*1343 memory[7][4]
*1344 DFFPOSX1_37
*1345 INVX1_34
*1346 NAND2X1_5
*1347 memory[7][5]
*1348 DFFPOSX1_38
*1349 INVX1_40
*1350 NAND2X1_6
*1351 memory[7][6]
*1352 DFFPOSX1_39
*1353 INVX1_46
*1354 NAND2X1_7
*1355 memory[7][7]
*1356 DFFPOSX1_40
*1357 NAND2X1_8
*1358 INVX1_52
*1359 _138_
*1360 INVX1_3
*1361 NOR2X1_28
*1362 NOR2X1_2
*1363 memory[8][0]
*1364 DFFPOSX1_73
*1365 NOR2X1_4
*1366 AOI21X1_36
*1367 memory[8][1]
*1368 DFFPOSX1_74
*1369 NOR2X1_5
*1370 NOR2X1_38
*1371 memory[8][2]
*1372 DFFPOSX1_75
*1373 NOR2X1_6
*1374 NOR2X1_42
*1375 memory[8][3]
*1376 DFFPOSX1_76
*1377 AOI21X1_54
*1378 NOR2X1_7
*1379 memory[8][4]
*1380 DFFPOSX1_77
*1381 AOI21X1_61
*1382 NOR2X1_8
*1383 memory[8][5]
*1384 DFFPOSX1_78
*1385 NOR2X1_9
*1386 NOR2X1_50
*1387 memory[8][6]
*1388 DFFPOSX1_79
*1389 AOI21X1_75
*1390 NOR2X1_10
*1391 memory[8][7]
*1392 DFFPOSX1_80
*1393 NOR2X1_54
*1394 NOR2X1_11
*1395 memory[9][0]
*1396 DFFPOSX1_41
*1397 AOI21X1_37
*1398 NOR2X1_13
*1399 memory[9][1]
*1400 DFFPOSX1_42
*1401 NOR2X1_14
*1402 OAI21X1_80
*1403 memory[9][2]
*1404 DFFPOSX1_43
*1405 NOR2X1_15
*1406 OAI21X1_89
*1407 memory[9][3]
*1408 DFFPOSX1_44
*1409 AOI21X1_55
*1410 NOR2X1_16
*1411 memory[9][4]
*1412 DFFPOSX1_45
*1413 NOR2X1_17
*1414 AOI21X1_62
*1415 memory[9][5]
*1416 DFFPOSX1_46
*1417 OAI21X1_125
*1418 NOR2X1_18
*1419 memory[9][6]
*1420 DFFPOSX1_47
*1421 AOI21X1_76
*1422 NOR2X1_19
*1423 memory[9][7]
*1424 DFFPOSX1_48
*1425 OAI21X1_147
*1426 NOR2X1_20
*1427 _226_
*1428 INVX1_16
*1429 MUX2X1_8
*1430 OAI21X1_70
*1431 memory[10][1]
*1432 DFFPOSX1_26
*1433 NOR2X1_22
*1434 OAI21X1_81
*1435 memory[10][2]
*1436 DFFPOSX1_27
*1437 NOR2X1_23
*1438 OAI21X1_90
*1439 _303_
*1440 INVX1_31
*1441 OAI21X1_101
*1442 MUX2X1_9
*1443 _331_
*1444 INVX1_37
*1445 MUX2X1_10
*1446 OAI21X1_112
*1447 memory[10][5]
*1448 DFFPOSX1_30
*1449 OAI21X1_126
*1450 NOR2X1_24
*1451 _387_
*1452 INVX1_49
*1453 OAI21X1_134
*1454 MUX2X1_11
*1455 memory[10][7]
*1456 DFFPOSX1_32
*1457 OAI21X1_148
*1458 NOR2X1_25
*1459 memory[11][0]
*1460 DFFPOSX1_121
*1461 NAND2X1_12
*1462 INVX1_17
*1463 memory[11][1]
*1464 DFFPOSX1_122
*1465 NOR2X1_39
*1466 NAND2X1_13
*1467 memory[11][2]
*1468 DFFPOSX1_123
*1469 NAND2X1_14
*1470 NOR2X1_43
*1471 memory[11][3]
*1472 DFFPOSX1_124
*1473 INVX1_32
*1474 NAND2X1_15
*1475 memory[11][4]
*1476 DFFPOSX1_125
*1477 INVX1_38
*1478 NAND2X1_16
*1479 memory[11][5]
*1480 DFFPOSX1_126
*1481 NOR2X1_51
*1482 NAND2X1_17
*1483 memory[11][6]
*1484 DFFPOSX1_127
*1485 NAND2X1_18
*1486 INVX1_50
*1487 memory[11][7]
*1488 DFFPOSX1_128
*1489 NAND2X1_19
*1490 NOR2X1_55
*1491 memory[12][0]
*1492 DFFPOSX1_113
*1493 NAND2X1_20
*1494 AOI21X1_33
*1495 memory[12][1]
*1496 DFFPOSX1_114
*1497 NAND2X1_21
*1498 AOI21X1_44
*1499 memory[12][2]
*1500 DFFPOSX1_115
*1501 NAND2X1_22
*1502 OAI21X1_91
*1503 memory[12][3]
*1504 DFFPOSX1_116
*1505 NOR2X1_46
*1506 NAND2X1_23
*1507 memory[12][4]
*1508 DFFPOSX1_117
*1509 NAND2X1_24
*1510 NOR2X1_48
*1511 memory[12][5]
*1512 DFFPOSX1_118
*1513 AOI21X1_68
*1514 NAND2X1_25
*1515 memory[12][6]
*1516 DFFPOSX1_119
*1517 NAND2X1_26
*1518 NOR2X1_52
*1519 memory[12][7]
*1520 DFFPOSX1_120
*1521 NAND2X1_27
*1522 AOI21X1_82
*1523 memory[13][0]
*1524 DFFPOSX1_105
*1525 NAND2X1_28
*1526 AOI21X1_34
*1527 memory[13][1]
*1528 DFFPOSX1_106
*1529 NAND2X1_29
*1530 AOI21X1_45
*1531 memory[13][2]
*1532 DFFPOSX1_107
*1533 NAND2X1_30
*1534 INVX1_26
*1535 memory[13][3]
*1536 DFFPOSX1_108
*1537 OAI21X1_103
*1538 NAND2X1_31
*1539 memory[13][4]
*1540 DFFPOSX1_109
*1541 NAND2X1_32
*1542 OAI21X1_114
*1543 memory[13][5]
*1544 DFFPOSX1_110
*1545 NAND2X1_33
*1546 AOI21X1_69
*1547 memory[13][6]
*1548 DFFPOSX1_111
*1549 NAND2X1_34
*1550 OAI21X1_136
*1551 memory[13][7]
*1552 DFFPOSX1_112
*1553 AOI21X1_83
*1554 NAND2X1_35
*1555 memory[14][0]
*1556 DFFPOSX1_89
*1557 NAND2X1_36
*1558 INVX1_14
*1559 memory[14][1]
*1560 DFFPOSX1_90
*1561 NAND2X1_37
*1562 INVX1_22
*1563 memory[14][2]
*1564 DFFPOSX1_91
*1565 NAND2X1_38
*1566 OAI21X1_92
*1567 memory[14][3]
*1568 DFFPOSX1_92
*1569 NAND2X1_39
*1570 OAI21X1_104
*1571 memory[14][4]
*1572 DFFPOSX1_93
*1573 NAND2X1_40
*1574 OAI21X1_115
*1575 memory[14][5]
*1576 DFFPOSX1_94
*1577 INVX1_43
*1578 NAND2X1_41
*1579 memory[14][6]
*1580 DFFPOSX1_95
*1581 NAND2X1_42
*1582 OAI21X1_137
*1583 memory[14][7]
*1584 DFFPOSX1_96
*1585 NAND2X1_43
*1586 INVX1_55
*1587 memory[15][0]
*1588 DFFPOSX1_81
*1589 NAND2X1_44
*1590 INVX1_15
*1591 memory[15][1]
*1592 DFFPOSX1_82
*1593 INVX1_23
*1594 NAND2X1_45
*1595 memory[15][2]
*1596 DFFPOSX1_83
*1597 NOR2X1_45
*1598 NAND2X1_46
*1599 memory[15][3]
*1600 DFFPOSX1_84
*1601 NOR2X1_47
*1602 NAND2X1_47
*1603 memory[15][4]
*1604 DFFPOSX1_85
*1605 NOR2X1_49
*1606 NAND2X1_48
*1607 memory[15][5]
*1608 DFFPOSX1_86
*1609 NAND2X1_49
*1610 INVX1_44
*1611 memory[15][6]
*1612 DFFPOSX1_87
*1613 NOR2X1_53
*1614 NAND2X1_50
*1615 memory[3][0]
*1616 DFFPOSX1_1
*1617 NAND2X1_90
*1618 AOI21X1_29
*1619 memory[3][1]
*1620 DFFPOSX1_2
*1621 NAND2X1_91
*1622 AOI21X1_41
*1623 memory[3][2]
*1624 DFFPOSX1_3
*1625 NAND2X1_92
*1626 NOR2X1_41
*1627 memory[3][3]
*1628 DFFPOSX1_4
*1629 NAND2X1_93
*1630 AOI21X1_51
*1631 memory[3][4]
*1632 DFFPOSX1_5
*1633 AOI21X1_58
*1634 NAND2X1_94
*1635 memory[3][5]
*1636 DFFPOSX1_6
*1637 AOI21X1_65
*1638 NAND2X1_95
*1639 memory[3][6]
*1640 DFFPOSX1_7
*1641 NAND2X1_96
*1642 AOI21X1_72
*1643 memory[3][7]
*1644 DFFPOSX1_8
*1645 NAND2X1_97
*1646 AOI21X1_79
*1647 memory[4][2]
*1648 DFFPOSX1_11
*1649 NOR2X1_76
*1650 OAI21X1_83
*1651 memory[1][0]
*1652 DFFPOSX1_17
*1653 AOI21X1_31
*1654 NOR2X1_59
*1655 memory[1][1]
*1656 DFFPOSX1_18
*1657 NOR2X1_60
*1658 AOI21X1_43
*1659 memory[1][3]
*1660 DFFPOSX1_20
*1661 NOR2X1_61
*1662 AOI21X1_53
*1663 memory[1][4]
*1664 DFFPOSX1_21
*1665 AOI21X1_60
*1666 NOR2X1_62
*1667 memory[1][5]
*1668 DFFPOSX1_22
*1669 NOR2X1_63
*1670 AOI21X1_67
*1671 memory[1][6]
*1672 DFFPOSX1_23
*1673 NOR2X1_64
*1674 AOI21X1_74
*1675 memory[1][7]
*1676 DFFPOSX1_24
*1677 NOR2X1_65
*1678 AOI21X1_81
*1679 memory[0][0]
*1680 DFFPOSX1_57
*1681 AOI21X1_30
*1682 NAND2X1_74
*1683 memory[0][1]
*1684 DFFPOSX1_58
*1685 NAND2X1_76
*1686 AOI21X1_42
*1687 memory[0][2]
*1688 DFFPOSX1_59
*1689 OAI21X1_86
*1690 NAND2X1_78
*1691 memory[0][3]
*1692 DFFPOSX1_60
*1693 NAND2X1_80
*1694 AOI21X1_52
*1695 memory[0][4]
*1696 DFFPOSX1_61
*1697 NAND2X1_82
*1698 AOI21X1_59
*1699 memory[0][5]
*1700 DFFPOSX1_62
*1701 NAND2X1_84
*1702 AOI21X1_66
*1703 memory[0][6]
*1704 DFFPOSX1_63
*1705 NAND2X1_86
*1706 AOI21X1_73
*1707 memory[0][7]
*1708 DFFPOSX1_64
*1709 AOI21X1_80
*1710 NAND2X1_87
*1711 memory[2][0]
*1712 DFFPOSX1_65
*1713 NOR2X1_67
*1714 AOI21X1_28
*1715 memory[2][1]
*1716 DFFPOSX1_66
*1717 AOI21X1_40
*1718 NOR2X1_68
*1719 memory[2][2]
*1720 DFFPOSX1_67
*1721 NOR2X1_69
*1722 OAI21X1_87
*1723 memory[2][3]
*1724 DFFPOSX1_68
*1725 NOR2X1_70
*1726 AOI21X1_50
*1727 memory[2][4]
*1728 DFFPOSX1_69
*1729 NOR2X1_71
*1730 AOI21X1_57
*1731 memory[2][5]
*1732 DFFPOSX1_70
*1733 NOR2X1_72
*1734 AOI21X1_64
*1735 memory[2][6]
*1736 DFFPOSX1_71
*1737 NOR2X1_73
*1738 AOI21X1_71
*1739 memory[2][7]
*1740 DFFPOSX1_72
*1741 NOR2X1_74
*1742 AOI21X1_78
*1743 memory[15][7]
*1744 DFFPOSX1_88
*1745 INVX1_56
*1746 NAND2X1_52
*1747 _143_
*1748 INVX1_4
*1749 NOR2X1_29
*1750 NOR2X1_33
*1751 d_in[7]
*1752 NAND2X1_51
*1753 INVX4_8
*1754 _169_
*1755 NAND2X1_58
*1756 XNOR2X1_4
*1757 OAI21X1_55
*1758 _184_
*1759 AND2X2_3
*1760 NAND2X1_62
*1761 NAND3X1_12
*1762 _191_
*1763 AOI21X1_26
*1764 NAND3X1_13
*1765 NAND2X1_63
*1766 _192_
*1767 NAND2X1_63
*1768 AOI22X1_2
*1769 OAI21X1_60
*1770 _194_
*1771 NOR2X1_36
*1772 NAND2X1_65
*1773 AOI21X1_27
*1774 _211_
*1775 INVX1_12
*1776 MUX2X1_15
*1777 OAI21X1_65
*1778 _214_
*1779 INVX1_13
*1780 MUX2X1_22
*1781 OAI21X1_66
*1782 _241_
*1783 INVX1_20
*1784 MUX2X1_16
*1785 OAI21X1_75
*1786 _244_
*1787 INVX1_21
*1788 MUX2X1_23
*1789 OAI21X1_76
*1790 _262_
*1791 INVX1_24
*1792 AOI21X1_47
*1793 MUX2X1_24
*1794 _268_
*1795 INVX1_25
*1796 MUX2X1_14
*1797 AOI21X1_48
*1798 _295_
*1799 INVX1_29
*1800 MUX2X1_17
*1801 OAI21X1_98
*1802 _298_
*1803 INVX1_30
*1804 MUX2X1_25
*1805 OAI21X1_99
*1806 _323_
*1807 INVX1_35
*1808 MUX2X1_18
*1809 OAI21X1_109
*1810 _326_
*1811 INVX1_36
*1812 OAI21X1_110
*1813 MUX2X1_26
*1814 _351_
*1815 INVX1_41
*1816 MUX2X1_19
*1817 OAI21X1_120
*1818 _354_
*1819 INVX1_42
*1820 MUX2X1_27
*1821 OAI21X1_121
*1822 _379_
*1823 INVX1_47
*1824 MUX2X1_20
*1825 OAI21X1_131
*1826 _382_
*1827 INVX1_48
*1828 MUX2X1_28
*1829 OAI21X1_132
*1830 _407_
*1831 INVX1_53
*1832 MUX2X1_21
*1833 OAI21X1_142
*1834 _410_
*1835 INVX1_54
*1836 MUX2X1_29
*1837 OAI21X1_143
*1838 d_in[0]
*1839 NAND2X1_73
*1840 INVX4_1
*1841 d_in[1]
*1842 INVX4_2
*1843 NAND2X1_75
*1844 d_in[2]
*1845 INVX4_3
*1846 NAND2X1_77
*1847 d_in[3]
*1848 NAND2X1_79
*1849 INVX4_4
*1850 d_in[4]
*1851 NAND2X1_81
*1852 INVX4_5
*1853 d_in[5]